LTspice 26.0.2 for Windows
Circuit: C:\Projects\applied-electronics-labs\cu-boulder-power-electronics\01-boost-converter-simulation\boost.net
Start Time: Tue Jul 21 12:01:50 2026
Options:reltol=0.0005
solver = Normal
Maximum thread count: 12
tnom = 27
temp = 27
method = trap
reltol = 0.0005
Per .tran options, skipping operating point for transient analysis.
Total elapsed time: 5.800 seconds.

Files loaded:
C:\Projects\applied-electronics-labs\cu-boulder-power-electronics\01-boost-converter-simulation\boost.net
C:\Users\Tural\AppData\Local\LTspice\lib\cmp\standard.dio
C:\Users\Tural\AppData\Local\LTspice\lib\cmp\standard.mos
C:\Projects\applied-electronics-labs\cu-boulder-power-electronics\01-boost-converter-simulation\switching.lib
C:\Users\Tural\AppData\Local\LTspice\lib\sub\LTC7.lib

